[board]
type=System
children=cache_hierarchy clk_domain dvfs_handler memory processor workload
auto_unlink_shared_backstore=false
cache_line_size=64
eventq_index=0
exit_on_work_items=true
init_param=0
m5ops_base=0
mem_mode=timing
mem_ranges=0:1073741824
memories=board.memory.mem_ctrl.dram
mmap_using_noreserve=false
multi_thread=false
num_work_ids=16
readfile=
redirect_paths=
shadow_rom_ranges=
shared_backstore=
symbolfile=
thermal_components=
thermal_model=Null
work_begin_ckpt_count=0
work_begin_cpu_id_exit=-1
work_begin_exit_count=0
work_cpus_ckpt_count=0
work_end_ckpt_count=0
work_end_exit_count=0
work_item_id=-1
workload=board.workload
system_port=board.cache_hierarchy.ruby_system.sys_port_proxy.in_ports[0]

[board.cache_hierarchy]
type=SubSystem
children=ruby_system
eventq_index=0
thermal_domain=Null

[board.cache_hierarchy.ruby_system]
type=RubySystem
children=directory_controllers l1_controllers l2_controllers0 l2_controllers1 l2_controllers2 l2_controllers3 network power_state sys_port_proxy
access_backing_store=false
all_instructions=false
block_size_bytes=64
clk_domain=board.clk_domain
eventq_index=0
hot_lines=false
memory_size_bits=64
num_of_sequencers=1
number_of_virtual_networks=3
phys_mem=Null
power_model=
power_state=board.cache_hierarchy.ruby_system.power_state
randomization=false
system=board

[board.cache_hierarchy.ruby_system.directory_controllers]
type=Directory_Controller
children=directory power_state requestToDir requestToMemory responseFromDir responseFromMemory responseToDir
addr_ranges=0:1073741824
buffer_size=0
clk_domain=board.clk_domain
cluster_id=0
directory=board.cache_hierarchy.ruby_system.directory_controllers.directory
directory_latency=6
downstream_destinations=
eventq_index=0
mandatory_queue_latency=1
number_of_TBEs=256
power_model=
power_state=board.cache_hierarchy.ruby_system.directory_controllers.power_state
recycle_latency=10
requestToDir=board.cache_hierarchy.ruby_system.directory_controllers.requestToDir
requestToMemory=board.cache_hierarchy.ruby_system.directory_controllers.requestToMemory
responseFromDir=board.cache_hierarchy.ruby_system.directory_controllers.responseFromDir
responseFromMemory=board.cache_hierarchy.ruby_system.directory_controllers.responseFromMemory
responseToDir=board.cache_hierarchy.ruby_system.directory_controllers.responseToDir
ruby_system=board.cache_hierarchy.ruby_system
system=board
to_mem_ctrl_latency=1
transitions_per_cycle=32
upstream_destinations=
version=0
memory_out_port=board.memory.mem_ctrl.port

[board.cache_hierarchy.ruby_system.directory_controllers.directory]
type=RubyDirectoryMemory
addr_ranges=0:1073741824
eventq_index=0

[board.cache_hierarchy.ruby_system.directory_controllers.power_state]
type=PowerState
clk_gate_bins=20
clk_gate_max=1000000000000
clk_gate_min=1000
default_state=UNDEFINED
eventq_index=0
leaders=
possible_states=

[board.cache_hierarchy.ruby_system.directory_controllers.requestToDir]
type=MessageBuffer
allow_zero_latency=false
buffer_size=0
eventq_index=0
max_dequeue_rate=0
ordered=false
randomization=ruby_system
routing_priority=0
in_port=board.cache_hierarchy.ruby_system.network.out_port[14]

[board.cache_hierarchy.ruby_system.directory_controllers.requestToMemory]
type=MessageBuffer
allow_zero_latency=false
buffer_size=0
eventq_index=0
max_dequeue_rate=0
ordered=false
randomization=ruby_system
routing_priority=0

[board.cache_hierarchy.ruby_system.directory_controllers.responseFromDir]
type=MessageBuffer
allow_zero_latency=false
buffer_size=0
eventq_index=0
max_dequeue_rate=0
ordered=false
randomization=ruby_system
routing_priority=0
out_port=board.cache_hierarchy.ruby_system.network.in_port[15]

[board.cache_hierarchy.ruby_system.directory_controllers.responseFromMemory]
type=MessageBuffer
allow_zero_latency=false
buffer_size=0
eventq_index=0
max_dequeue_rate=0
ordered=false
randomization=ruby_system
routing_priority=0

[board.cache_hierarchy.ruby_system.directory_controllers.responseToDir]
type=MessageBuffer
allow_zero_latency=false
buffer_size=0
eventq_index=0
max_dequeue_rate=0
ordered=false
randomization=ruby_system
routing_priority=0
in_port=board.cache_hierarchy.ruby_system.network.out_port[15]

[board.cache_hierarchy.ruby_system.l1_controllers]
type=L1Cache_Controller
children=L1Dcache L1Icache mandatoryQueue optionalQueue power_state prefetcher requestFromL1Cache requestToL1Cache responseFromL1Cache responseToL1Cache sequencer unblockFromL1Cache
L1Dcache=board.cache_hierarchy.ruby_system.l1_controllers.L1Dcache
L1Icache=board.cache_hierarchy.ruby_system.l1_controllers.L1Icache
addr_ranges=0:18446744073709551615
buffer_size=0
clk_domain=board.clk_domain
cluster_id=0
downstream_destinations=
enable_prefetch=false
eventq_index=0
l1_request_latency=2
l1_response_latency=2
l2_select_num_bits=2
mandatoryQueue=board.cache_hierarchy.ruby_system.l1_controllers.mandatoryQueue
mandatory_queue_latency=1
number_of_TBEs=256
optionalQueue=board.cache_hierarchy.ruby_system.l1_controllers.optionalQueue
power_model=
power_state=board.cache_hierarchy.ruby_system.l1_controllers.power_state
prefetcher=board.cache_hierarchy.ruby_system.l1_controllers.prefetcher
recycle_latency=10
requestFromL1Cache=board.cache_hierarchy.ruby_system.l1_controllers.requestFromL1Cache
requestToL1Cache=board.cache_hierarchy.ruby_system.l1_controllers.requestToL1Cache
responseFromL1Cache=board.cache_hierarchy.ruby_system.l1_controllers.responseFromL1Cache
responseToL1Cache=board.cache_hierarchy.ruby_system.l1_controllers.responseToL1Cache
ruby_system=board.cache_hierarchy.ruby_system
send_evictions=false
sequencer=board.cache_hierarchy.ruby_system.l1_controllers.sequencer
system=board
to_l2_latency=1
transitions_per_cycle=4
unblockFromL1Cache=board.cache_hierarchy.ruby_system.l1_controllers.unblockFromL1Cache
upstream_destinations=
version=0

[board.cache_hierarchy.ruby_system.l1_controllers.L1Dcache]
type=RubyCache
children=replacement_policy
assoc=8
block_size=0
dataAccessLatency=1
dataArrayBanks=1
eventq_index=0
is_icache=false
replacement_policy=board.cache_hierarchy.ruby_system.l1_controllers.L1Dcache.replacement_policy
resourceStalls=false
ruby_system=board.cache_hierarchy.ruby_system
size=65536
start_index_bit=6
tagAccessLatency=1
tagArrayBanks=1

[board.cache_hierarchy.ruby_system.l1_controllers.L1Dcache.replacement_policy]
type=TreePLRURP
eventq_index=0
num_leaves=8

[board.cache_hierarchy.ruby_system.l1_controllers.L1Icache]
type=RubyCache
children=replacement_policy
assoc=8
block_size=0
dataAccessLatency=1
dataArrayBanks=1
eventq_index=0
is_icache=true
replacement_policy=board.cache_hierarchy.ruby_system.l1_controllers.L1Icache.replacement_policy
resourceStalls=false
ruby_system=board.cache_hierarchy.ruby_system
size=65536
start_index_bit=6
tagAccessLatency=1
tagArrayBanks=1

[board.cache_hierarchy.ruby_system.l1_controllers.L1Icache.replacement_policy]
type=TreePLRURP
eventq_index=0
num_leaves=8

[board.cache_hierarchy.ruby_system.l1_controllers.mandatoryQueue]
type=MessageBuffer
allow_zero_latency=false
buffer_size=0
eventq_index=0
max_dequeue_rate=0
ordered=false
randomization=ruby_system
routing_priority=0

[board.cache_hierarchy.ruby_system.l1_controllers.optionalQueue]
type=MessageBuffer
allow_zero_latency=false
buffer_size=0
eventq_index=0
max_dequeue_rate=0
ordered=false
randomization=ruby_system
routing_priority=0

[board.cache_hierarchy.ruby_system.l1_controllers.power_state]
type=PowerState
clk_gate_bins=20
clk_gate_max=1000000000000
clk_gate_min=1000
default_state=UNDEFINED
eventq_index=0
leaders=
possible_states=

[board.cache_hierarchy.ruby_system.l1_controllers.prefetcher]
type=RubyPrefetcher
cross_page=false
eventq_index=0
nonunit_filter=8
num_startup_pfs=1
num_streams=4
page_shift=12
train_misses=4
unit_filter=8

[board.cache_hierarchy.ruby_system.l1_controllers.requestFromL1Cache]
type=MessageBuffer
allow_zero_latency=false
buffer_size=0
eventq_index=0
max_dequeue_rate=0
ordered=false
randomization=ruby_system
routing_priority=0
out_port=board.cache_hierarchy.ruby_system.network.in_port[0]

[board.cache_hierarchy.ruby_system.l1_controllers.requestToL1Cache]
type=MessageBuffer
allow_zero_latency=false
buffer_size=0
eventq_index=0
max_dequeue_rate=0
ordered=false
randomization=ruby_system
routing_priority=0
in_port=board.cache_hierarchy.ruby_system.network.out_port[0]

[board.cache_hierarchy.ruby_system.l1_controllers.responseFromL1Cache]
type=MessageBuffer
allow_zero_latency=false
buffer_size=0
eventq_index=0
max_dequeue_rate=0
ordered=false
randomization=ruby_system
routing_priority=0
out_port=board.cache_hierarchy.ruby_system.network.in_port[1]

[board.cache_hierarchy.ruby_system.l1_controllers.responseToL1Cache]
type=MessageBuffer
allow_zero_latency=false
buffer_size=0
eventq_index=0
max_dequeue_rate=0
ordered=false
randomization=ruby_system
routing_priority=0
in_port=board.cache_hierarchy.ruby_system.network.out_port[1]

[board.cache_hierarchy.ruby_system.l1_controllers.sequencer]
type=RubySequencer
children=power_state
clk_domain=board.clk_domain
coreid=99
dcache=board.cache_hierarchy.ruby_system.l1_controllers.L1Dcache
deadlock_threshold=500000
eventq_index=0
garnet_standalone=false
is_cpu_sequencer=true
max_outstanding_requests=16
no_retry_on_stall=false
power_model=
power_state=board.cache_hierarchy.ruby_system.l1_controllers.sequencer.power_state
ruby_system=board.cache_hierarchy.ruby_system
support_data_reqs=true
support_inst_reqs=true
system=board
using_ruby_tester=false
version=0
in_ports=board.processor.cores.core.icache_port board.processor.cores.core.dcache_port board.processor.cores.core.mmu.itb.walker.port board.processor.cores.core.mmu.dtb.walker.port

[board.cache_hierarchy.ruby_system.l1_controllers.sequencer.power_state]
type=PowerState
clk_gate_bins=20
clk_gate_max=1000000000000
clk_gate_min=1000
default_state=UNDEFINED
eventq_index=0
leaders=
possible_states=

[board.cache_hierarchy.ruby_system.l1_controllers.unblockFromL1Cache]
type=MessageBuffer
allow_zero_latency=false
buffer_size=0
eventq_index=0
max_dequeue_rate=0
ordered=false
randomization=ruby_system
routing_priority=0
out_port=board.cache_hierarchy.ruby_system.network.in_port[2]

[board.cache_hierarchy.ruby_system.l2_controllers0]
type=L2Cache_Controller
children=DirRequestFromL2Cache L1RequestFromL2Cache L1RequestToL2Cache L2cache power_state responseFromL2Cache responseToL2Cache unblockToL2Cache
DirRequestFromL2Cache=board.cache_hierarchy.ruby_system.l2_controllers0.DirRequestFromL2Cache
L1RequestFromL2Cache=board.cache_hierarchy.ruby_system.l2_controllers0.L1RequestFromL2Cache
L1RequestToL2Cache=board.cache_hierarchy.ruby_system.l2_controllers0.L1RequestToL2Cache
L2cache=board.cache_hierarchy.ruby_system.l2_controllers0.L2cache
addr_ranges=0:18446744073709551615
buffer_size=0
clk_domain=board.clk_domain
cluster_id=0
downstream_destinations=
eventq_index=0
l2_request_latency=2
l2_response_latency=2
mandatory_queue_latency=1
number_of_TBEs=256
power_model=
power_state=board.cache_hierarchy.ruby_system.l2_controllers0.power_state
recycle_latency=10
responseFromL2Cache=board.cache_hierarchy.ruby_system.l2_controllers0.responseFromL2Cache
responseToL2Cache=board.cache_hierarchy.ruby_system.l2_controllers0.responseToL2Cache
ruby_system=board.cache_hierarchy.ruby_system
system=board
to_l1_latency=1
transitions_per_cycle=4
unblockToL2Cache=board.cache_hierarchy.ruby_system.l2_controllers0.unblockToL2Cache
upstream_destinations=
version=0

[board.cache_hierarchy.ruby_system.l2_controllers0.DirRequestFromL2Cache]
type=MessageBuffer
allow_zero_latency=false
buffer_size=0
eventq_index=0
max_dequeue_rate=0
ordered=false
randomization=ruby_system
routing_priority=0
out_port=board.cache_hierarchy.ruby_system.network.in_port[3]

[board.cache_hierarchy.ruby_system.l2_controllers0.L1RequestFromL2Cache]
type=MessageBuffer
allow_zero_latency=false
buffer_size=0
eventq_index=0
max_dequeue_rate=0
ordered=false
randomization=ruby_system
routing_priority=0
out_port=board.cache_hierarchy.ruby_system.network.in_port[4]

[board.cache_hierarchy.ruby_system.l2_controllers0.L1RequestToL2Cache]
type=MessageBuffer
allow_zero_latency=false
buffer_size=0
eventq_index=0
max_dequeue_rate=0
ordered=false
randomization=ruby_system
routing_priority=0
in_port=board.cache_hierarchy.ruby_system.network.out_port[3]

[board.cache_hierarchy.ruby_system.l2_controllers0.L2cache]
type=RubyCache
children=replacement_policy
assoc=4
block_size=0
dataAccessLatency=1
dataArrayBanks=1
eventq_index=0
is_icache=false
replacement_policy=board.cache_hierarchy.ruby_system.l2_controllers0.L2cache.replacement_policy
resourceStalls=false
ruby_system=board.cache_hierarchy.ruby_system
size=262144
start_index_bit=8
tagAccessLatency=1
tagArrayBanks=1

[board.cache_hierarchy.ruby_system.l2_controllers0.L2cache.replacement_policy]
type=TreePLRURP
eventq_index=0
num_leaves=4

[board.cache_hierarchy.ruby_system.l2_controllers0.power_state]
type=PowerState
clk_gate_bins=20
clk_gate_max=1000000000000
clk_gate_min=1000
default_state=UNDEFINED
eventq_index=0
leaders=
possible_states=

[board.cache_hierarchy.ruby_system.l2_controllers0.responseFromL2Cache]
type=MessageBuffer
allow_zero_latency=false
buffer_size=0
eventq_index=0
max_dequeue_rate=0
ordered=false
randomization=ruby_system
routing_priority=0
out_port=board.cache_hierarchy.ruby_system.network.in_port[5]

[board.cache_hierarchy.ruby_system.l2_controllers0.responseToL2Cache]
type=MessageBuffer
allow_zero_latency=false
buffer_size=0
eventq_index=0
max_dequeue_rate=0
ordered=false
randomization=ruby_system
routing_priority=0
in_port=board.cache_hierarchy.ruby_system.network.out_port[4]

[board.cache_hierarchy.ruby_system.l2_controllers0.unblockToL2Cache]
type=MessageBuffer
allow_zero_latency=false
buffer_size=0
eventq_index=0
max_dequeue_rate=0
ordered=false
randomization=ruby_system
routing_priority=0
in_port=board.cache_hierarchy.ruby_system.network.out_port[2]

[board.cache_hierarchy.ruby_system.l2_controllers1]
type=L2Cache_Controller
children=DirRequestFromL2Cache L1RequestFromL2Cache L1RequestToL2Cache L2cache power_state responseFromL2Cache responseToL2Cache unblockToL2Cache
DirRequestFromL2Cache=board.cache_hierarchy.ruby_system.l2_controllers1.DirRequestFromL2Cache
L1RequestFromL2Cache=board.cache_hierarchy.ruby_system.l2_controllers1.L1RequestFromL2Cache
L1RequestToL2Cache=board.cache_hierarchy.ruby_system.l2_controllers1.L1RequestToL2Cache
L2cache=board.cache_hierarchy.ruby_system.l2_controllers1.L2cache
addr_ranges=0:18446744073709551615
buffer_size=0
clk_domain=board.clk_domain
cluster_id=0
downstream_destinations=
eventq_index=0
l2_request_latency=2
l2_response_latency=2
mandatory_queue_latency=1
number_of_TBEs=256
power_model=
power_state=board.cache_hierarchy.ruby_system.l2_controllers1.power_state
recycle_latency=10
responseFromL2Cache=board.cache_hierarchy.ruby_system.l2_controllers1.responseFromL2Cache
responseToL2Cache=board.cache_hierarchy.ruby_system.l2_controllers1.responseToL2Cache
ruby_system=board.cache_hierarchy.ruby_system
system=board
to_l1_latency=1
transitions_per_cycle=4
unblockToL2Cache=board.cache_hierarchy.ruby_system.l2_controllers1.unblockToL2Cache
upstream_destinations=
version=1

[board.cache_hierarchy.ruby_system.l2_controllers1.DirRequestFromL2Cache]
type=MessageBuffer
allow_zero_latency=false
buffer_size=0
eventq_index=0
max_dequeue_rate=0
ordered=false
randomization=ruby_system
routing_priority=0
out_port=board.cache_hierarchy.ruby_system.network.in_port[6]

[board.cache_hierarchy.ruby_system.l2_controllers1.L1RequestFromL2Cache]
type=MessageBuffer
allow_zero_latency=false
buffer_size=0
eventq_index=0
max_dequeue_rate=0
ordered=false
randomization=ruby_system
routing_priority=0
out_port=board.cache_hierarchy.ruby_system.network.in_port[7]

[board.cache_hierarchy.ruby_system.l2_controllers1.L1RequestToL2Cache]
type=MessageBuffer
allow_zero_latency=false
buffer_size=0
eventq_index=0
max_dequeue_rate=0
ordered=false
randomization=ruby_system
routing_priority=0
in_port=board.cache_hierarchy.ruby_system.network.out_port[6]

[board.cache_hierarchy.ruby_system.l2_controllers1.L2cache]
type=RubyCache
children=replacement_policy
assoc=4
block_size=0
dataAccessLatency=1
dataArrayBanks=1
eventq_index=0
is_icache=false
replacement_policy=board.cache_hierarchy.ruby_system.l2_controllers1.L2cache.replacement_policy
resourceStalls=false
ruby_system=board.cache_hierarchy.ruby_system
size=262144
start_index_bit=8
tagAccessLatency=1
tagArrayBanks=1

[board.cache_hierarchy.ruby_system.l2_controllers1.L2cache.replacement_policy]
type=TreePLRURP
eventq_index=0
num_leaves=4

[board.cache_hierarchy.ruby_system.l2_controllers1.power_state]
type=PowerState
clk_gate_bins=20
clk_gate_max=1000000000000
clk_gate_min=1000
default_state=UNDEFINED
eventq_index=0
leaders=
possible_states=

[board.cache_hierarchy.ruby_system.l2_controllers1.responseFromL2Cache]
type=MessageBuffer
allow_zero_latency=false
buffer_size=0
eventq_index=0
max_dequeue_rate=0
ordered=false
randomization=ruby_system
routing_priority=0
out_port=board.cache_hierarchy.ruby_system.network.in_port[8]

[board.cache_hierarchy.ruby_system.l2_controllers1.responseToL2Cache]
type=MessageBuffer
allow_zero_latency=false
buffer_size=0
eventq_index=0
max_dequeue_rate=0
ordered=false
randomization=ruby_system
routing_priority=0
in_port=board.cache_hierarchy.ruby_system.network.out_port[7]

[board.cache_hierarchy.ruby_system.l2_controllers1.unblockToL2Cache]
type=MessageBuffer
allow_zero_latency=false
buffer_size=0
eventq_index=0
max_dequeue_rate=0
ordered=false
randomization=ruby_system
routing_priority=0
in_port=board.cache_hierarchy.ruby_system.network.out_port[5]

[board.cache_hierarchy.ruby_system.l2_controllers2]
type=L2Cache_Controller
children=DirRequestFromL2Cache L1RequestFromL2Cache L1RequestToL2Cache L2cache power_state responseFromL2Cache responseToL2Cache unblockToL2Cache
DirRequestFromL2Cache=board.cache_hierarchy.ruby_system.l2_controllers2.DirRequestFromL2Cache
L1RequestFromL2Cache=board.cache_hierarchy.ruby_system.l2_controllers2.L1RequestFromL2Cache
L1RequestToL2Cache=board.cache_hierarchy.ruby_system.l2_controllers2.L1RequestToL2Cache
L2cache=board.cache_hierarchy.ruby_system.l2_controllers2.L2cache
addr_ranges=0:18446744073709551615
buffer_size=0
clk_domain=board.clk_domain
cluster_id=0
downstream_destinations=
eventq_index=0
l2_request_latency=2
l2_response_latency=2
mandatory_queue_latency=1
number_of_TBEs=256
power_model=
power_state=board.cache_hierarchy.ruby_system.l2_controllers2.power_state
recycle_latency=10
responseFromL2Cache=board.cache_hierarchy.ruby_system.l2_controllers2.responseFromL2Cache
responseToL2Cache=board.cache_hierarchy.ruby_system.l2_controllers2.responseToL2Cache
ruby_system=board.cache_hierarchy.ruby_system
system=board
to_l1_latency=1
transitions_per_cycle=4
unblockToL2Cache=board.cache_hierarchy.ruby_system.l2_controllers2.unblockToL2Cache
upstream_destinations=
version=2

[board.cache_hierarchy.ruby_system.l2_controllers2.DirRequestFromL2Cache]
type=MessageBuffer
allow_zero_latency=false
buffer_size=0
eventq_index=0
max_dequeue_rate=0
ordered=false
randomization=ruby_system
routing_priority=0
out_port=board.cache_hierarchy.ruby_system.network.in_port[9]

[board.cache_hierarchy.ruby_system.l2_controllers2.L1RequestFromL2Cache]
type=MessageBuffer
allow_zero_latency=false
buffer_size=0
eventq_index=0
max_dequeue_rate=0
ordered=false
randomization=ruby_system
routing_priority=0
out_port=board.cache_hierarchy.ruby_system.network.in_port[10]

[board.cache_hierarchy.ruby_system.l2_controllers2.L1RequestToL2Cache]
type=MessageBuffer
allow_zero_latency=false
buffer_size=0
eventq_index=0
max_dequeue_rate=0
ordered=false
randomization=ruby_system
routing_priority=0
in_port=board.cache_hierarchy.ruby_system.network.out_port[9]

[board.cache_hierarchy.ruby_system.l2_controllers2.L2cache]
type=RubyCache
children=replacement_policy
assoc=4
block_size=0
dataAccessLatency=1
dataArrayBanks=1
eventq_index=0
is_icache=false
replacement_policy=board.cache_hierarchy.ruby_system.l2_controllers2.L2cache.replacement_policy
resourceStalls=false
ruby_system=board.cache_hierarchy.ruby_system
size=262144
start_index_bit=8
tagAccessLatency=1
tagArrayBanks=1

[board.cache_hierarchy.ruby_system.l2_controllers2.L2cache.replacement_policy]
type=TreePLRURP
eventq_index=0
num_leaves=4

[board.cache_hierarchy.ruby_system.l2_controllers2.power_state]
type=PowerState
clk_gate_bins=20
clk_gate_max=1000000000000
clk_gate_min=1000
default_state=UNDEFINED
eventq_index=0
leaders=
possible_states=

[board.cache_hierarchy.ruby_system.l2_controllers2.responseFromL2Cache]
type=MessageBuffer
allow_zero_latency=false
buffer_size=0
eventq_index=0
max_dequeue_rate=0
ordered=false
randomization=ruby_system
routing_priority=0
out_port=board.cache_hierarchy.ruby_system.network.in_port[11]

[board.cache_hierarchy.ruby_system.l2_controllers2.responseToL2Cache]
type=MessageBuffer
allow_zero_latency=false
buffer_size=0
eventq_index=0
max_dequeue_rate=0
ordered=false
randomization=ruby_system
routing_priority=0
in_port=board.cache_hierarchy.ruby_system.network.out_port[10]

[board.cache_hierarchy.ruby_system.l2_controllers2.unblockToL2Cache]
type=MessageBuffer
allow_zero_latency=false
buffer_size=0
eventq_index=0
max_dequeue_rate=0
ordered=false
randomization=ruby_system
routing_priority=0
in_port=board.cache_hierarchy.ruby_system.network.out_port[8]

[board.cache_hierarchy.ruby_system.l2_controllers3]
type=L2Cache_Controller
children=DirRequestFromL2Cache L1RequestFromL2Cache L1RequestToL2Cache L2cache power_state responseFromL2Cache responseToL2Cache unblockToL2Cache
DirRequestFromL2Cache=board.cache_hierarchy.ruby_system.l2_controllers3.DirRequestFromL2Cache
L1RequestFromL2Cache=board.cache_hierarchy.ruby_system.l2_controllers3.L1RequestFromL2Cache
L1RequestToL2Cache=board.cache_hierarchy.ruby_system.l2_controllers3.L1RequestToL2Cache
L2cache=board.cache_hierarchy.ruby_system.l2_controllers3.L2cache
addr_ranges=0:18446744073709551615
buffer_size=0
clk_domain=board.clk_domain
cluster_id=0
downstream_destinations=
eventq_index=0
l2_request_latency=2
l2_response_latency=2
mandatory_queue_latency=1
number_of_TBEs=256
power_model=
power_state=board.cache_hierarchy.ruby_system.l2_controllers3.power_state
recycle_latency=10
responseFromL2Cache=board.cache_hierarchy.ruby_system.l2_controllers3.responseFromL2Cache
responseToL2Cache=board.cache_hierarchy.ruby_system.l2_controllers3.responseToL2Cache
ruby_system=board.cache_hierarchy.ruby_system
system=board
to_l1_latency=1
transitions_per_cycle=4
unblockToL2Cache=board.cache_hierarchy.ruby_system.l2_controllers3.unblockToL2Cache
upstream_destinations=
version=3

[board.cache_hierarchy.ruby_system.l2_controllers3.DirRequestFromL2Cache]
type=MessageBuffer
allow_zero_latency=false
buffer_size=0
eventq_index=0
max_dequeue_rate=0
ordered=false
randomization=ruby_system
routing_priority=0
out_port=board.cache_hierarchy.ruby_system.network.in_port[12]

[board.cache_hierarchy.ruby_system.l2_controllers3.L1RequestFromL2Cache]
type=MessageBuffer
allow_zero_latency=false
buffer_size=0
eventq_index=0
max_dequeue_rate=0
ordered=false
randomization=ruby_system
routing_priority=0
out_port=board.cache_hierarchy.ruby_system.network.in_port[13]

[board.cache_hierarchy.ruby_system.l2_controllers3.L1RequestToL2Cache]
type=MessageBuffer
allow_zero_latency=false
buffer_size=0
eventq_index=0
max_dequeue_rate=0
ordered=false
randomization=ruby_system
routing_priority=0
in_port=board.cache_hierarchy.ruby_system.network.out_port[12]

[board.cache_hierarchy.ruby_system.l2_controllers3.L2cache]
type=RubyCache
children=replacement_policy
assoc=4
block_size=0
dataAccessLatency=1
dataArrayBanks=1
eventq_index=0
is_icache=false
replacement_policy=board.cache_hierarchy.ruby_system.l2_controllers3.L2cache.replacement_policy
resourceStalls=false
ruby_system=board.cache_hierarchy.ruby_system
size=262144
start_index_bit=8
tagAccessLatency=1
tagArrayBanks=1

[board.cache_hierarchy.ruby_system.l2_controllers3.L2cache.replacement_policy]
type=TreePLRURP
eventq_index=0
num_leaves=4

[board.cache_hierarchy.ruby_system.l2_controllers3.power_state]
type=PowerState
clk_gate_bins=20
clk_gate_max=1000000000000
clk_gate_min=1000
default_state=UNDEFINED
eventq_index=0
leaders=
possible_states=

[board.cache_hierarchy.ruby_system.l2_controllers3.responseFromL2Cache]
type=MessageBuffer
allow_zero_latency=false
buffer_size=0
eventq_index=0
max_dequeue_rate=0
ordered=false
randomization=ruby_system
routing_priority=0
out_port=board.cache_hierarchy.ruby_system.network.in_port[14]

[board.cache_hierarchy.ruby_system.l2_controllers3.responseToL2Cache]
type=MessageBuffer
allow_zero_latency=false
buffer_size=0
eventq_index=0
max_dequeue_rate=0
ordered=false
randomization=ruby_system
routing_priority=0
in_port=board.cache_hierarchy.ruby_system.network.out_port[13]

[board.cache_hierarchy.ruby_system.l2_controllers3.unblockToL2Cache]
type=MessageBuffer
allow_zero_latency=false
buffer_size=0
eventq_index=0
max_dequeue_rate=0
ordered=false
randomization=ruby_system
routing_priority=0
in_port=board.cache_hierarchy.ruby_system.network.out_port[11]

[board.cache_hierarchy.ruby_system.network]
type=SimpleNetwork
children=ext_links0 ext_links1 ext_links2 ext_links3 ext_links4 ext_links5 int_links00 int_links01 int_links02 int_links03 int_links04 int_links05 int_links06 int_links07 int_links08 int_links09 int_links10 int_links11 int_links12 int_links13 int_links14 int_links15 int_links16 int_links17 int_links18 int_links19 int_links20 int_links21 int_links22 int_links23 int_links24 int_links25 int_links26 int_links27 int_links28 int_links29 power_state routers0 routers1 routers2 routers3 routers4 routers5
buffer_size=0
clk_domain=board.clk_domain
control_msg_size=8
data_msg_size=64
endpoint_bandwidth=1000
eventq_index=0
ext_links=board.cache_hierarchy.ruby_system.network.ext_links0 board.cache_hierarchy.ruby_system.network.ext_links1 board.cache_hierarchy.ruby_system.network.ext_links2 board.cache_hierarchy.ruby_system.network.ext_links3 board.cache_hierarchy.ruby_system.network.ext_links4 board.cache_hierarchy.ruby_system.network.ext_links5
int_links=board.cache_hierarchy.ruby_system.network.int_links00 board.cache_hierarchy.ruby_system.network.int_links01 board.cache_hierarchy.ruby_system.network.int_links02 board.cache_hierarchy.ruby_system.network.int_links03 board.cache_hierarchy.ruby_system.network.int_links04 board.cache_hierarchy.ruby_system.network.int_links05 board.cache_hierarchy.ruby_system.network.int_links06 board.cache_hierarchy.ruby_system.network.int_links07 board.cache_hierarchy.ruby_system.network.int_links08 board.cache_hierarchy.ruby_system.network.int_links09 board.cache_hierarchy.ruby_system.network.int_links10 board.cache_hierarchy.ruby_system.network.int_links11 board.cache_hierarchy.ruby_system.network.int_links12 board.cache_hierarchy.ruby_system.network.int_links13 board.cache_hierarchy.ruby_system.network.int_links14 board.cache_hierarchy.ruby_system.network.int_links15 board.cache_hierarchy.ruby_system.network.int_links16 board.cache_hierarchy.ruby_system.network.int_links17 board.cache_hierarchy.ruby_system.network.int_links18 board.cache_hierarchy.ruby_system.network.int_links19 board.cache_hierarchy.ruby_system.network.int_links20 board.cache_hierarchy.ruby_system.network.int_links21 board.cache_hierarchy.ruby_system.network.int_links22 board.cache_hierarchy.ruby_system.network.int_links23 board.cache_hierarchy.ruby_system.network.int_links24 board.cache_hierarchy.ruby_system.network.int_links25 board.cache_hierarchy.ruby_system.network.int_links26 board.cache_hierarchy.ruby_system.network.int_links27 board.cache_hierarchy.ruby_system.network.int_links28 board.cache_hierarchy.ruby_system.network.int_links29
netifs=
number_of_virtual_networks=3
physical_vnets_bandwidth=
physical_vnets_channels=
power_model=
power_state=board.cache_hierarchy.ruby_system.network.power_state
routers=board.cache_hierarchy.ruby_system.network.routers0 board.cache_hierarchy.ruby_system.network.routers1 board.cache_hierarchy.ruby_system.network.routers2 board.cache_hierarchy.ruby_system.network.routers3 board.cache_hierarchy.ruby_system.network.routers4 board.cache_hierarchy.ruby_system.network.routers5
ruby_system=board.cache_hierarchy.ruby_system
topology=Not Specified
in_port=board.cache_hierarchy.ruby_system.l1_controllers.requestFromL1Cache.out_port board.cache_hierarchy.ruby_system.l1_controllers.responseFromL1Cache.out_port board.cache_hierarchy.ruby_system.l1_controllers.unblockFromL1Cache.out_port board.cache_hierarchy.ruby_system.l2_controllers0.DirRequestFromL2Cache.out_port board.cache_hierarchy.ruby_system.l2_controllers0.L1RequestFromL2Cache.out_port board.cache_hierarchy.ruby_system.l2_controllers0.responseFromL2Cache.out_port board.cache_hierarchy.ruby_system.l2_controllers1.DirRequestFromL2Cache.out_port board.cache_hierarchy.ruby_system.l2_controllers1.L1RequestFromL2Cache.out_port board.cache_hierarchy.ruby_system.l2_controllers1.responseFromL2Cache.out_port board.cache_hierarchy.ruby_system.l2_controllers2.DirRequestFromL2Cache.out_port board.cache_hierarchy.ruby_system.l2_controllers2.L1RequestFromL2Cache.out_port board.cache_hierarchy.ruby_system.l2_controllers2.responseFromL2Cache.out_port board.cache_hierarchy.ruby_system.l2_controllers3.DirRequestFromL2Cache.out_port board.cache_hierarchy.ruby_system.l2_controllers3.L1RequestFromL2Cache.out_port board.cache_hierarchy.ruby_system.l2_controllers3.responseFromL2Cache.out_port board.cache_hierarchy.ruby_system.directory_controllers.responseFromDir.out_port