[board]
type=System
children=cache_hierarchy clk_domain dvfs_handler memory processor workload
auto_unlink_shared_backstore=false
cache_line_size=64
eventq_index=0
exit_on_work_items=true
init_param=0
m5ops_base=0
mem_mode=timing
mem_ranges=0:1073741824
memories=board.memory.mem_ctrl.dram
mmap_using_noreserve=false
multi_thread=false
num_work_ids=16
readfile=
redirect_paths=
shadow_rom_ranges=
shared_backstore=
symbolfile=
thermal_components=
thermal_model=Null
work_begin_ckpt_count=0
work_begin_cpu_id_exit=-1
work_begin_exit_count=0
work_cpus_ckpt_count=0
work_end_ckpt_count=0
work_end_exit_count=0
work_item_id=-1
workload=board.workload
system_port=board.cache_hierarchy.ruby_system.sys_port_proxy.in_ports[0]

[board.cache_hierarchy]
type=SubSystem
children=ruby_system
eventq_index=0
thermal_domain=Null

[board.cache_hierarchy.ruby_system]
type=RubySystem
children=directory_controllers l1_controllers00 l1_controllers01 l1_controllers02 l1_controllers03 l1_controllers04 l1_controllers05 l1_controllers06 l1_controllers07 l1_controllers08 l1_controllers09 l1_controllers10 l1_controllers11 l1_controllers12 l1_controllers13 l1_controllers14 l1_controllers15 l1_controllers16 l2_controllers00 l2_controllers01 l2_controllers02 l2_controllers03 l2_controllers04 l2_controllers05 l2_controllers06 l2_controllers07 l2_controllers08 l2_controllers09 l2_controllers10 l2_controllers11 l2_controllers12 l2_controllers13 l2_controllers14 l2_controllers15 network power_state sys_port_proxy
access_backing_store=false
all_instructions=false
block_size_bytes=64
clk_domain=board.clk_domain
eventq_index=0
hot_lines=false
memory_size_bits=64
num_of_sequencers=17
number_of_virtual_networks=5
phys_mem=Null
power_model=
power_state=board.cache_hierarchy.ruby_system.power_state
randomization=false
system=board

[board.cache_hierarchy.ruby_system.directory_controllers]
type=Directory_Controller
children=directory power_state requestToDir requestToMemory responseFromDir responseFromMemory responseToDir
addr_ranges=0:1073741824
buffer_size=0
clk_domain=board.clk_domain
cluster_id=0
directory=board.cache_hierarchy.ruby_system.directory_controllers.directory
directory_latency=6
downstream_destinations=
eventq_index=0
mandatory_queue_latency=1
number_of_TBEs=256
power_model=
power_state=board.cache_hierarchy.ruby_system.directory_controllers.power_state
recycle_latency=10
requestToDir=board.cache_hierarchy.ruby_system.directory_controllers.requestToDir
requestToMemory=board.cache_hierarchy.ruby_system.directory_controllers.requestToMemory
responseFromDir=board.cache_hierarchy.ruby_system.directory_controllers.responseFromDir
responseFromMemory=board.cache_hierarchy.ruby_system.directory_controllers.responseFromMemory
responseToDir=board.cache_hierarchy.ruby_system.directory_controllers.responseToDir
ruby_system=board.cache_hierarchy.ruby_system
system=board
to_mem_ctrl_latency=1
transitions_per_cycle=32
upstream_destinations=
version=0
memory_out_port=board.memory.mem_ctrl.port

[board.cache_hierarchy.ruby_system.directory_controllers.directory]
type=RubyDirectoryMemory
addr_ranges=0:1073741824
eventq_index=0

[board.cache_hierarchy.ruby_system.directory_controllers.power_state]
type=PowerState
clk_gate_bins=20
clk_gate_max=1000000000000
clk_gate_min=1000
default_state=UNDEFINED
eventq_index=0
leaders=
possible_states=

[board.cache_hierarchy.ruby_system.directory_controllers.requestToDir]
type=MessageBuffer
allow_zero_latency=false
buffer_size=0
eventq_index=0
max_dequeue_rate=0
ordered=false
randomization=ruby_system
routing_priority=0
in_port=board.cache_hierarchy.ruby_system.network.out_port[82]

[board.cache_hierarchy.ruby_system.directory_controllers.requestToMemory]
type=MessageBuffer
allow_zero_latency=false
buffer_size=0
eventq_index=0
max_dequeue_rate=0
ordered=false
randomization=ruby_system
routing_priority=0

[board.cache_hierarchy.ruby_system.directory_controllers.responseFromDir]
type=MessageBuffer
allow_zero_latency=false
buffer_size=0
eventq_index=0
max_dequeue_rate=0
ordered=false
randomization=ruby_system
routing_priority=0
out_port=board.cache_hierarchy.ruby_system.network.in_port[99]

[board.cache_hierarchy.ruby_system.directory_controllers.responseFromMemory]
type=MessageBuffer
allow_zero_latency=false
buffer_size=0
eventq_index=0
max_dequeue_rate=0
ordered=false
randomization=ruby_system
routing_priority=0

[board.cache_hierarchy.ruby_system.directory_controllers.responseToDir]
type=MessageBuffer
allow_zero_latency=false
buffer_size=0
eventq_index=0
max_dequeue_rate=0
ordered=false
randomization=ruby_system
routing_priority=0
in_port=board.cache_hierarchy.ruby_system.network.out_port[83]

[board.cache_hierarchy.ruby_system.l1_controllers00]
type=L1Cache_Controller
children=L1Dcache L1Icache mandatoryQueue optionalQueue power_state prefetcher requestFromL1Cache requestToL1Cache responseFromL1Cache responseToL1Cache sequencer unblockFromL1Cache
L1Dcache=board.cache_hierarchy.ruby_system.l1_controllers00.L1Dcache
L1Icache=board.cache_hierarchy.ruby_system.l1_controllers00.L1Icache
addr_ranges=0:18446744073709551615
buffer_size=0
clk_domain=board.clk_domain
cluster_id=0
downstream_destinations=
enable_prefetch=false
eventq_index=0
l1_request_latency=2
l1_response_latency=2
l2_select_num_bits=4
mandatoryQueue=board.cache_hierarchy.ruby_system.l1_controllers00.mandatoryQueue
mandatory_queue_latency=1
number_of_TBEs=256
optionalQueue=board.cache_hierarchy.ruby_system.l1_controllers00.optionalQueue
power_model=
power_state=board.cache_hierarchy.ruby_system.l1_controllers00.power_state
prefetcher=board.cache_hierarchy.ruby_system.l1_controllers00.prefetcher
recycle_latency=10
requestFromL1Cache=board.cache_hierarchy.ruby_system.l1_controllers00.requestFromL1Cache
requestToL1Cache=board.cache_hierarchy.ruby_system.l1_controllers00.requestToL1Cache
responseFromL1Cache=board.cache_hierarchy.ruby_system.l1_controllers00.responseFromL1Cache
responseToL1Cache=board.cache_hierarchy.ruby_system.l1_controllers00.responseToL1Cache
ruby_system=board.cache_hierarchy.ruby_system
send_evictions=true
sequencer=board.cache_hierarchy.ruby_system.l1_controllers00.sequencer
system=board
to_l2_latency=1
transitions_per_cycle=4
unblockFromL1Cache=board.cache_hierarchy.ruby_system.l1_controllers00.unblockFromL1Cache
upstream_destinations=
version=0

[board.cache_hierarchy.ruby_system.l1_controllers00.L1Dcache]
type=RubyCache
children=replacement_policy
assoc=8
block_size=0
dataAccessLatency=1
dataArrayBanks=1
eventq_index=0
is_icache=false
replacement_policy=board.cache_hierarchy.ruby_system.l1_controllers00.L1Dcache.replacement_policy
resourceStalls=false
ruby_system=board.cache_hierarchy.ruby_system
size=32768
start_index_bit=6
tagAccessLatency=1
tagArrayBanks=1

[board.cache_hierarchy.ruby_system.l1_controllers00.L1Dcache.replacement_policy]
type=TreePLRURP
eventq_index=0
num_leaves=8

[board.cache_hierarchy.ruby_system.l1_controllers00.L1Icache]
type=RubyCache
children=replacement_policy
assoc=8
block_size=0
dataAccessLatency=1
dataArrayBanks=1
eventq_index=0
is_icache=true
replacement_policy=board.cache_hierarchy.ruby_system.l1_controllers00.L1Icache.replacement_policy
resourceStalls=false
ruby_system=board.cache_hierarchy.ruby_system
size=32768
start_index_bit=6
tagAccessLatency=1
tagArrayBanks=1

[board.cache_hierarchy.ruby_system.l1_controllers00.L1Icache.replacement_policy]
type=TreePLRURP
eventq_index=0
num_leaves=8

[board.cache_hierarchy.ruby_system.l1_controllers00.mandatoryQueue]
type=MessageBuffer
allow_zero_latency=false
buffer_size=0
eventq_index=0
max_dequeue_rate=0
ordered=false
randomization=ruby_system
routing_priority=0

[board.cache_hierarchy.ruby_system.l1_controllers00.optionalQueue]
type=MessageBuffer
allow_zero_latency=false
buffer_size=0
eventq_index=0
max_dequeue_rate=0
ordered=false
randomization=ruby_system
routing_priority=0

[board.cache_hierarchy.ruby_system.l1_controllers00.power_state]
type=PowerState
clk_gate_bins=20
clk_gate_max=1000000000000
clk_gate_min=1000
default_state=UNDEFINED
eventq_index=0
leaders=
possible_states=

[board.cache_hierarchy.ruby_system.l1_controllers00.prefetcher]
type=RubyPrefetcher
cross_page=false
eventq_index=0
nonunit_filter=8
num_startup_pfs=1
num_streams=4
page_shift=12
train_misses=4
unit_filter=8

[board.cache_hierarchy.ruby_system.l1_controllers00.requestFromL1Cache]
type=MessageBuffer
allow_zero_latency=false
buffer_size=0
eventq_index=0
max_dequeue_rate=0
ordered=false
randomization=ruby_system
routing_priority=0
out_port=board.cache_hierarchy.ruby_system.network.in_port[0]

[board.cache_hierarchy.ruby_system.l1_controllers00.requestToL1Cache]
type=MessageBuffer
allow_zero_latency=false
buffer_size=0
eventq_index=0
max_dequeue_rate=0
ordered=false
randomization=ruby_system
routing_priority=0
in_port=board.cache_hierarchy.ruby_system.network.out_port[0]

[board.cache_hierarchy.ruby_system.l1_controllers00.responseFromL1Cache]
type=MessageBuffer
allow_zero_latency=false
buffer_size=0
eventq_index=0
max_dequeue_rate=0
ordered=false
randomization=ruby_system
routing_priority=0
out_port=board.cache_hierarchy.ruby_system.network.in_port[1]

[board.cache_hierarchy.ruby_system.l1_controllers00.responseToL1Cache]
type=MessageBuffer
allow_zero_latency=false
buffer_size=0
eventq_index=0
max_dequeue_rate=0
ordered=false
randomization=ruby_system
routing_priority=0
in_port=board.cache_hierarchy.ruby_system.network.out_port[1]

[board.cache_hierarchy.ruby_system.l1_controllers00.sequencer]
type=RubySequencer
children=power_state
clk_domain=board.clk_domain
coreid=99
dcache=board.cache_hierarchy.ruby_system.l1_controllers00.L1Dcache
deadlock_threshold=500000
eventq_index=0
garnet_standalone=false
is_cpu_sequencer=true
max_outstanding_requests=16
no_retry_on_stall=false
power_model=
power_state=board.cache_hierarchy.ruby_system.l1_controllers00.sequencer.power_state
ruby_system=board.cache_hierarchy.ruby_system
support_data_reqs=true
support_inst_reqs=true
system=board
using_ruby_tester=false
version=0
in_ports=board.processor.cores00.core.icache_port board.processor.cores00.core.dcache_port board.processor.cores00.core.mmu.itb.walker.port board.processor.cores00.core.mmu.dtb.walker.port board.processor.cores00.core.interrupts.int_requestor
interrupt_out_port=board.processor.cores00.core.interrupts.pio board.processor.cores00.core.interrupts.int_responder

[board.cache_hierarchy.ruby_system.l1_controllers00.sequencer.power_state]
type=PowerState
clk_gate_bins=20
clk_gate_max=1000000000000
clk_gate_min=1000
default_state=UNDEFINED
eventq_index=0
leaders=
possible_states=

[board.cache_hierarchy.ruby_system.l1_controllers00.unblockFromL1Cache]
type=MessageBuffer
allow_zero_latency=false
buffer_size=0
eventq_index=0
max_dequeue_rate=0
ordered=false
randomization=ruby_system
routing_priority=0
out_port=board.cache_hierarchy.ruby_system.network.in_port[2]

[board.cache_hierarchy.ruby_system.l1_controllers01]
type=L1Cache_Controller
children=L1Dcache L1Icache mandatoryQueue optionalQueue power_state prefetcher requestFromL1Cache requestToL1Cache responseFromL1Cache responseToL1Cache sequencer unblockFromL1Cache
L1Dcache=board.cache_hierarchy.ruby_system.l1_controllers01.L1Dcache
L1Icache=board.cache_hierarchy.ruby_system.l1_controllers01.L1Icache
addr_ranges=0:18446744073709551615
buffer_size=0
clk_domain=board.clk_domain
cluster_id=0
downstream_destinations=
enable_prefetch=false
eventq_index=0
l1_request_latency=2
l1_response_latency=2
l2_select_num_bits=4
mandatoryQueue=board.cache_hierarchy.ruby_system.l1_controllers01.mandatoryQueue
mandatory_queue_latency=1
number_of_TBEs=256
optionalQueue=board.cache_hierarchy.ruby_system.l1_controllers01.optionalQueue
power_model=
power_state=board.cache_hierarchy.ruby_system.l1_controllers01.power_state
prefetcher=board.cache_hierarchy.ruby_system.l1_controllers01.prefetcher
recycle_latency=10
requestFromL1Cache=board.cache_hierarchy.ruby_system.l1_controllers01.requestFromL1Cache
requestToL1Cache=board.cache_hierarchy.ruby_system.l1_controllers01.requestToL1Cache
responseFromL1Cache=board.cache_hierarchy.ruby_system.l1_controllers01.responseFromL1Cache
responseToL1Cache=board.cache_hierarchy.ruby_system.l1_controllers01.responseToL1Cache
ruby_system=board.cache_hierarchy.ruby_system
send_evictions=true
sequencer=board.cache_hierarchy.ruby_system.l1_controllers01.sequencer
system=board
to_l2_latency=1
transitions_per_cycle=4
unblockFromL1Cache=board.cache_hierarchy.ruby_system.l1_controllers01.unblockFromL1Cache
upstream_destinations=
version=1

[board.cache_hierarchy.ruby_system.l1_controllers01.L1Dcache]
type=RubyCache
children=replacement_policy
assoc=8
block_size=0
dataAccessLatency=1
dataArrayBanks=1
eventq_index=0
is_icache=false
replacement_policy=board.cache_hierarchy.ruby_system.l1_controllers01.L1Dcache.replacement_policy
resourceStalls=false
ruby_system=board.cache_hierarchy.ruby_system
size=32768
start_index_bit=6
tagAccessLatency=1
tagArrayBanks=1

[board.cache_hierarchy.ruby_system.l1_controllers01.L1Dcache.replacement_policy]
type=TreePLRURP
eventq_index=0
num_leaves=8

[board.cache_hierarchy.ruby_system.l1_controllers01.L1Icache]
type=RubyCache
children=replacement_policy
assoc=8
block_size=0
dataAccessLatency=1
dataArrayBanks=1
eventq_index=0
is_icache=true
replacement_policy=board.cache_hierarchy.ruby_system.l1_controllers01.L1Icache.replacement_policy
resourceStalls=false
ruby_system=board.cache_hierarchy.ruby_system
size=32768
start_index_bit=6
tagAccessLatency=1
tagArrayBanks=1

[board.cache_hierarchy.ruby_system.l1_controllers01.L1Icache.replacement_policy]
type=TreePLRURP
eventq_index=0
num_leaves=8

[board.cache_hierarchy.ruby_system.l1_controllers01.mandatoryQueue]
type=MessageBuffer
allow_zero_latency=false
buffer_size=0
eventq_index=0
max_dequeue_rate=0
ordered=false
randomization=ruby_system
routing_priority=0

[board.cache_hierarchy.ruby_system.l1_controllers01.optionalQueue]
type=MessageBuffer
allow_zero_latency=false
buffer_size=0
eventq_index=0
max_dequeue_rate=0
ordered=false
randomization=ruby_system
routing_priority=0

[board.cache_hierarchy.ruby_system.l1_controllers01.power_state]
type=PowerState
clk_gate_bins=20
clk_gate_max=1000000000000
clk_gate_min=1000
default_state=UNDEFINED
eventq_index=0
leaders=
possible_states=

[board.cache_hierarchy.ruby_system.l1_controllers01.prefetcher]
type=RubyPrefetcher
cross_page=false
eventq_index=0
nonunit_filter=8
num_startup_pfs=1
num_streams=4
page_shift=12
train_misses=4
unit_filter=8

[board.cache_hierarchy.ruby_system.l1_controllers01.requestFromL1Cache]
type=MessageBuffer
allow_zero_latency=false
buffer_size=0
eventq_index=0
max_dequeue_rate=0
ordered=false
randomization=ruby_system
routing_priority=0
out_port=board.cache_hierarchy.ruby_system.network.in_port[3]

[board.cache_hierarchy.ruby_system.l1_controllers01.requestToL1Cache]
type=MessageBuffer
allow_zero_latency=false
buffer_size=0
eventq_index=0
max_dequeue_rate=0
ordered=false
randomization=ruby_system
routing_priority=0
in_port=board.cache_hierarchy.ruby_system.network.out_port[2]

[board.cache_hierarchy.ruby_system.l1_controllers01.responseFromL1Cache]
type=MessageBuffer
allow_zero_latency=false
buffer_size=0
eventq_index=0
max_dequeue_rate=0
ordered=false
randomization=ruby_system
routing_priority=0
out_port=board.cache_hierarchy.ruby_system.network.in_port[4]

[board.cache_hierarchy.ruby_system.l1_controllers01.responseToL1Cache]
type=MessageBuffer
allow_zero_latency=false
buffer_size=0
eventq_index=0
max_dequeue_rate=0
ordered=false
randomization=ruby_system
routing_priority=0
in_port=board.cache_hierarchy.ruby_system.network.out_port[3]

[board.cache_hierarchy.ruby_system.l1_controllers01.sequencer]
type=RubySequencer
children=power_state
clk_domain=board.clk_domain
coreid=99
dcache=board.cache_hierarchy.ruby_system.l1_controllers01.L1Dcache
deadlock_threshold=500000
eventq_index=0
garnet_standalone=false
is_cpu_sequencer=true
max_outstanding_requests=16
no_retry_on_stall=false
power_model=
power_state=board.cache_hierarchy.ruby_system.l1_controllers01.sequencer.power_state
ruby_system=board.cache_hierarchy.ruby_system
support_data_reqs=true
support_inst_reqs=true
system=board
using_ruby_tester=false
version=1
in_ports=board.processor.cores01.core.icache_port board.processor.cores01.core.dcache_port board.processor.cores01.core.mmu.itb.walker.port board.processor.cores01.core.mmu.dtb.walker.port board.processor.cores01.core.interrupts.int_requestor
interrupt_out_port=board.processor.cores01.core.interrupts.pio board.processor.cores01.core.interrupts.int_responder

[board.cache_hierarchy.ruby_system.l1_controllers01.sequencer.power_state]
type=PowerState
clk_gate_bins=20
clk_gate_max=1000000000000
clk_gate_min=1000
default_state=UNDEFINED
eventq_index=0
leaders=
possible_states=

[board.cache_hierarchy.ruby_system.l1_controllers01.unblockFromL1Cache]
type=MessageBuffer
allow_zero_latency=false
buffer_size=0
eventq_index=0
max_dequeue_rate=0
ordered=false
randomization=ruby_system
routing_priority=0
out_port=board.cache_hierarchy.ruby_system.network.in_port[5]

[board.cache_hierarchy.ruby_system.l1_controllers02]
type=L1Cache_Controller
children=L1Dcache L1Icache mandatoryQueue optionalQueue power_state prefetcher requestFromL1Cache requestToL1Cache responseFromL1Cache responseToL1Cache sequencer unblockFromL1Cache
L1Dcache=board.cache_hierarchy.ruby_system.l1_controllers02.L1Dcache
L1Icache=board.cache_hierarchy.ruby_system.l1_controllers02.L1Icache
addr_ranges=0:18446744073709551615
buffer_size=0
clk_domain=board.clk_domain
cluster_id=0
downstream_destinations=
enable_prefetch=false
eventq_index=0
l1_request_latency=2
l1_response_latency=2
l2_select_num_bits=4
mandatoryQueue=board.cache_hierarchy.ruby_system.l1_controllers02.mandatoryQueue
mandatory_queue_latency=1
number_of_TBEs=256
optionalQueue=board.cache_hierarchy.ruby_system.l1_controllers02.optionalQueue
power_model=
power_state=board.cache_hierarchy.ruby_system.l1_controllers02.power_state
prefetcher=board.cache_hierarchy.ruby_system.l1_controllers02.prefetcher
recycle_latency=10
requestFromL1Cache=board.cache_hierarchy.ruby_system.l1_controllers02.requestFromL1Cache
requestToL1Cache=board.cache_hierarchy.ruby_system.l1_controllers02.requestToL1Cache
responseFromL1Cache=board.cache_hierarchy.ruby_system.l1_controllers02.responseFromL1Cache
responseToL1Cache=board.cache_hierarchy.ruby_system.l1_controllers02.responseToL1Cache
ruby_system=board.cache_hierarchy.ruby_system
send_evictions=true
sequencer=board.cache_hierarchy.ruby_system.l1_controllers02.sequencer
system=board
to_l2_latency=1
transitions_per_cycle=4
unblockFromL1Cache=board.cache_hierarchy.ruby_system.l1_controllers02.unblockFromL1Cache
upstream_destinations=
version=2

[board.cache_hierarchy.ruby_system.l1_controllers02.L1Dcache]
type=RubyCache
children=replacement_policy
assoc=8
block_size=0
dataAccessLatency=1
dataArrayBanks=1
eventq_index=0
is_icache=false
replacement_policy=board.cache_hierarchy.ruby_system.l1_controllers02.L1Dcache.replacement_policy
resourceStalls=false
ruby_system=board.cache_hierarchy.ruby_system
size=32768
start_index_bit=6
tagAccessLatency=1
tagArrayBanks=1

[board.cache_hierarchy.ruby_system.l1_controllers02.L1Dcache.replacement_policy]
type=TreePLRURP
eventq_index=0
num_leaves=8

[board.cache_hierarchy.ruby_system.l1_controllers02.L1Icache]
type=RubyCache
children=replacement_policy
assoc=8
block_size=0
dataAccessLatency=1
dataArrayBanks=1
eventq_index=0
is_icache=true
replacement_policy=board.cache_hierarchy.ruby_system.l1_controllers02.L1Icache.replacement_policy
resourceStalls=false
ruby_system=board.cache_hierarchy.ruby_system
size=32768
start_index_bit=6
tagAccessLatency=1
tagArrayBanks=1

[board.cache_hierarchy.ruby_system.l1_controllers02.L1Icache.replacement_policy]
type=TreePLRURP
eventq_index=0
num_leaves=8

[board.cache_hierarchy.ruby_system.l1_controllers02.mandatoryQueue]
type=MessageBuffer
allow_zero_latency=false
buffer_size=0
eventq_index=0
max_dequeue_rate=0
ordered=false
randomization=ruby_system
routing_priority=0

[board.cache_hierarchy.ruby_system.l1_controllers02.optionalQueue]
type=MessageBuffer
allow_zero_latency=false
buffer_size=0
eventq_index=0
max_dequeue_rate=0
ordered=false
randomization=ruby_system
routing_priority=0

[board.cache_hierarchy.ruby_system.l1_controllers02.power_state]
type=PowerState
clk_gate_bins=20
clk_gate_max=1000000000000
clk_gate_min=1000
default_state=UNDEFINED
eventq_index=0
leaders=
possible_states=

[board.cache_hierarchy.ruby_system.l1_controllers02.prefetcher]
type=RubyPrefetcher
cross_page=false
eventq_index=0
nonunit_filter=8
num_startup_pfs=1
num_streams=4
page_shift=12
train_misses=4
unit_filter=8

[board.cache_hierarchy.ruby_system.l1_controllers02.requestFromL1Cache]
type=MessageBuffer
allow_zero_latency=false
buffer_size=0
eventq_index=0
max_dequeue_rate=0
ordered=false
randomization=ruby_system
routing_priority=0
out_port=board.cache_hierarchy.ruby_system.network.in_port[6]

[board.cache_hierarchy.ruby_system.l1_controllers02.requestToL1Cache]
type=MessageBuffer
allow_zero_latency=false
buffer_size=0
eventq_index=0
max_dequeue_rate=0
ordered=false
randomization=ruby_system
routing_priority=0
in_port=board.cache_hierarchy.ruby_system.network.out_port[4]

[board.cache_hierarchy.ruby_system.l1_controllers02.responseFromL1Cache]
type=MessageBuffer
allow_zero_latency=false
buffer_size=0
eventq_index=0
max_dequeue_rate=0
ordered=false
randomization=ruby_system
routing_priority=0
out_port=board.cache_hierarchy.ruby_system.network.in_port[7]

[board.cache_hierarchy.ruby_system.l1_controllers02.responseToL1Cache]
type=MessageBuffer
allow_zero_latency=false
buffer_size=0
eventq_index=0
max_dequeue_rate=0
ordered=false
randomization=ruby_system
routing_priority=0
in_port=board.cache_hierarchy.ruby_system.network.out_port[5]

[board.cache_hierarchy.ruby_system.l1_controllers02.sequencer]
type=RubySequencer
children=power_state
clk_domain=board.clk_domain
coreid=99
dcache=board.cache_hierarchy.ruby_system.l1_controllers02.L1Dcache
deadlock_threshold=500000
eventq_index=0
garnet_standalone=false
is_cpu_sequencer=true
max_outstanding_requests=16
no_retry_on_stall=false
power_model=
power_state=board.cache_hierarchy.ruby_system.l1_controllers02.sequencer.power_state
ruby_system=board.cache_hierarchy.ruby_system
support_data_reqs=true
support_inst_reqs=true
system=board
using_ruby_tester=false
version=2
in_ports=board.processor.cores02.core.icache_port board.processor.cores02.core.dcache_port board.processor.cores02.core.mmu.itb.walker.port board.processor.cores02.core.mmu.dtb.walker.port board.processor.cores02.core.interrupts.int_requestor
interrupt_out_port=board.processor.cores02.core.interrupts.pio board.processor.cores02.core.interrupts.int_responder

[board.cache_hierarchy.ruby_system.l1_controllers02.sequencer.power_state]
type=PowerState
clk_gate_bins=20
clk_gate_max=1000000000000
clk_gate_min=1000
default_state=UNDEFINED
eventq_index=0
leaders=
possible_states=

[board.cache_hierarchy.ruby_system.l1_controllers02.unblockFromL1Cache]
type=MessageBuffer
allow_zero_latency=false
buffer_size=0
eventq_index=0
max_dequeue_rate=0
ordered=false
randomization=ruby_system
routing_priority=0
out_port=board.cache_hierarchy.ruby_system.network.in_port[8]

[board.cache_hierarchy.ruby_system.l1_controllers03]
type=L1Cache_Controller
children=L1Dcache L1Icache mandatoryQueue optionalQueue power_state prefetcher requestFromL1Cache requestToL1Cache responseFromL1Cache responseToL1Cache sequencer unblockFromL1Cache
L1Dcache=board.cache_hierarchy.ruby_system.l1_controllers03.L1Dcache
L1Icache=board.cache_hierarchy.ruby_system.l1_controllers03.L1Icache
addr_ranges=0:18446744073709551615
buffer_size=0
clk_domain=board.clk_domain
cluster_id=0
downstream_destinations=
enable_prefetch=false
eventq_index=0
l1_request_latency=2
l1_response_latency=2
l2_select_num_bits=4
mandatoryQueue=board.cache_hierarchy.ruby_system.l1_controllers03.mandatoryQueue
mandatory_queue_latency=1
number_of_TBEs=256
optionalQueue=board.cache_hierarchy.ruby_system.l1_controllers03.optionalQueue
power_model=
power_state=board.cache_hierarchy.ruby_system.l1_controllers03.power_state
prefetcher=board.cache_hierarchy.ruby_system.l1_controllers03.prefetcher
recycle_latency=10
requestFromL1Cache=board.cache_hierarchy.ruby_system.l1_controllers03.requestFromL1Cache
requestToL1Cache=board.cache_hierarchy.ruby_system.l1_controllers03.requestToL1Cache
responseFromL1Cache=board.cache_hierarchy.ruby_system.l1_controllers03.responseFromL1Cache
responseToL1Cache=board.cache_hierarchy.ruby_system.l1_controllers03.responseToL1Cache
ruby_system=board.cache_hierarchy.ruby_system
send_evictions=true
sequencer=board.cache_hierarchy.ruby_system.l1_controllers03.sequencer
system=board
to_l2_latency=1
transitions_per_cycle=4
unblockFromL1Cache=board.cache_hierarchy.ruby_system.l1_controllers03.unblockFromL1Cache
upstream_destinations=
version=3

[board.cache_hierarchy.ruby_system.l1_controllers03.L1Dcache]
type=RubyCache
children=replacement_policy
assoc=8
block_size=0
dataAccessLatency=1
dataArrayBanks=1
eventq_index=0
is_icache=false
replacement_policy=board.cache_hierarchy.ruby_system.l1_controllers03.L1Dcache.replacement_policy
resourceStalls=false
ruby_system=board.cache_hierarchy.ruby_system
size=32768
start_index_bit=6
tagAccessLatency=1
tagArrayBanks=1

[board.cache_hierarchy.ruby_system.l1_controllers03.L1Dcache.replacement_policy]
type=TreePLRURP
eventq_index=0
num_leaves=8

[board.cache_hierarchy.ruby_system.l1_controllers03.L1Icache]
type=RubyCache
children=replacement_policy
assoc=8
block_size=0
dataAccessLatency=1
dataArrayBanks=1
eventq_index=0
is_icache=true
replacement_policy=board.cache_hierarchy.ruby_system.l1_controllers03.L1Icache.replacement_policy
resourceStalls=false
ruby_system=board.cache_hierarchy.ruby_system
size=32768
start_index_bit=6
tagAccessLatency=1
tagArrayBanks=1

[board.cache_hierarchy.ruby_system.l1_controllers03.L1Icache.replacement_policy]
type=TreePLRURP
eventq_index=0
num_leaves=8

[board.cache_hierarchy.ruby_system.l1_controllers03.mandatoryQueue]
type=MessageBuffer
allow_zero_latency=false
buffer_size=0
eventq_index=0
max_dequeue_rate=0
ordered=false
randomization=ruby_system
routing_priority=0

[board.cache_hierarchy.ruby_system.l1_controllers03.optionalQueue]
type=MessageBuffer
allow_zero_latency=false
buffer_size=0
eventq_index=0
max_dequeue_rate=0
ordered=false
randomization=ruby_system
routing_priority=0

[board.cache_hierarchy.ruby_system.l1_controllers03.power_state]
type=PowerState
clk_gate_bins=20
clk_gate_max=1000000000000
clk_gate_min=1000
default_state=UNDEFINED
eventq_index=0
leaders=
possible_states=

[board.cache_hierarchy.ruby_system.l1_controllers03.prefetcher]
type=RubyPrefetcher
cross_page=false
eventq_index=0
nonunit_filter=8
num_startup_pfs=1
num_streams=4
page_shift=12
train_misses=4
unit_filter=8

[board.cache_hierarchy.ruby_system.l1_controllers03.requestFromL1Cache]
type=MessageBuffer
allow_zero_latency=false
buffer_size=0
eventq_index=0
max_dequeue_rate=0
ordered=false
randomization=ruby_system
routing_priority=0
out_port=board.cache_hierarchy.ruby_system.network.in_port[9]

[board.cache_hierarchy.ruby_system.l1_controllers03.requestToL1Cache]
type=MessageBuffer
allow_zero_latency=false
buffer_size=0
eventq_index=0
max_dequeue_rate=0
ordered=false
randomization=ruby_system
routing_priority=0
in_port=board.cache_hierarchy.ruby_system.network.out_port[6]

[board.cache_hierarchy.ruby_system.l1_controllers03.responseFromL1Cache]
type=MessageBuffer
allow_zero_latency=false
buffer_size=0
eventq_index=0
max_dequeue_rate=0
ordered=false
randomization=ruby_system
routing_priority=0
out_port=board.cache_hierarchy.ruby_system.network.in_port[10]

[board.cache_hierarchy.ruby_system.l1_controllers03.responseToL1Cache]
type=MessageBuffer
allow_zero_latency=false
buffer_size=0
eventq_index=0
max_dequeue_rate=0
ordered=false
randomization=ruby_system
routing_priority=0
in_port=board.cache_hierarchy.ruby_system.network.out_port[7]

[board.cache_hierarchy.ruby_system.l1_controllers03.sequencer]
type=RubySequencer
children=power_state
clk_domain=board.clk_domain
coreid=99
dcache=board.cache_hierarchy.ruby_system.l1_controllers03.L1Dcache
deadlock_threshold=500000
eventq_index=0
garnet_standalone=false
is_cpu_sequencer=true
max_outstanding_requests=16
no_retry_on_stall=false
power_model=
power_state=board.cache_hierarchy.ruby_system.l1_controllers03.sequencer.power_state
ruby_system=board.cache_hierarchy.ruby_system
support_data_reqs=true
support_inst_reqs=true
system=board
using_ruby_tester=false
version=3
in_ports=board.processor.cores03.core.icache_port board.processor.cores03.core.dcache_port board.processor.cores03.core.mmu.itb.walker.port board.processor.cores03.core.mmu.dtb.walker.port board.processor.cores03.core.interrupts.int_requestor
interrupt_out_port=board.processor.cores03.core.interrupts.pio board.processor.cores03.core.interrupts.int_responder

[board.cache_hierarchy.ruby_system.l1_controllers03.sequencer.power_state]
type=PowerState
clk_gate_bins=20
clk_gate_max=1000000000000
clk_gate_min=1000
default_state=UNDEFINED
eventq_index=0
leaders=
possible_states=

[board.cache_hierarchy.ruby_system.l1_controllers03.unblockFromL1Cache]
type=MessageBuffer
allow_zero_latency=false
buffer_size=0
eventq_index=0
max_dequeue_rate=0
ordered=false
randomization=ruby_system
routing_priority=0
out_port=board.cache_hierarchy.ruby_system.network.in_port[11]

[board.cache_hierarchy.ruby_system.l1_controllers04]
type=L1Cache_Controller
children=L1Dcache L1Icache mandatoryQueue optionalQueue power_state prefetcher requestFromL1Cache requestToL1Cache responseFromL1Cache responseToL1Cache sequencer unblockFromL1Cache
L1Dcache=board.cache_hierarchy.ruby_system.l1_controllers04.L1Dcache
L1Icache=board.cache_hierarchy.ruby_system.l1_controllers04.L1Icache
addr_ranges=0:18446744073709551615
buffer_size=0
clk_domain=board.clk_domain
cluster_id=0